<?xml version="1.0" encoding="UTF-8"?>

<!-- generated on 07/03/19 05:47:14 by Eclipse SUMO duarouter Version 1.2.0
<configuration xmlns:xsi="http://www.w3.org/2001/XMLSchema-instance" xsi:noNamespaceSchemaLocation="http://sumo.dlr.de/xsd/duarouterConfiguration.xsd">

    <input>
        <net-file value="Kleve_map2.net.xml"/>
        <route-files value="trips.trips.xml"/>
    </input>

    <output>
        <output-file value="Kleve.rou.xml"/>
        <alternatives-output value="Kleve.rou.alt.xml"/>
    </output>

    <time>
        <begin value="0"/>
        <end value="1000.0"/>
    </time>

    <report>
        <no-warnings value="true"/>
        <ignore-errors value="true"/>
        <no-step-log value="true"/>
    </report>

</configuration>
-->

<routes xmlns:xsi="http://www.w3.org/2001/XMLSchema-instance" xsi:noNamespaceSchemaLocation="http://sumo.dlr.de/xsd/routes_file.xsd">
    <vehicle id="0" depart="0.00">
        <route edges="-24524925#7 -24524925#6 -24524925#5 -24524925#4 -24524925#3 -24524925#2 -24524925#1 -20789455#1 -20789455#0 74002568#0 74002568#1 74002568#2"/>
    </vehicle>
    <vehicle id="1" depart="1.00">
        <route edges="-46888741#1 46888741#1 -24879168#0 20789454#4 20789454#5 20789454#6 20789454#7 74002568#0 74002568#1 74002568#2 74002568#3 74002568#4 237368576#0 237368576#1 323137727#0 323137727#1 529019094#0 529019094#1 44007518 529019093 -186071417#1 -186071417#0 -529019092 -22724799#5 -22724799#4 -22724799#3 -22724799#2 -22724799#1 -22724799#0 -529450291 -20789448 -529450292 -20789450"/>
    </vehicle>
    <vehicle id="2" depart="2.00">
        <route edges="46601870#3 37628462#1 -22724796#6 -22724796#5 -22724796#4 -22724796#3 -22724796#2 -22724796#1 -22724796#0 22724796#0"/>
    </vehicle>
    <vehicle id="3" depart="3.00">
        <route edges="-43541825 43541824 24921808#0 24921808#1 24921808#2 -24921748#2 -24921748#1 -24921748#0 148208159 148208164 -148208165 43541819#0 43541819#1 339937188#0 339937188#1 339937188#2 339937188#3 240820888#0 240820888#1 240820887 240820886 240371209 81246101 42782049 24891151 46725359#0 24891140 46738479 24644544#4 26536086 50005512 44647770#0 44647770#1 -24863312 -23766797#1 -23766797#0 -23766794 186631468 46887127#0 46887127#1 46887127#2 -53329931 -222819518 -529019095 -119683531#3 -119683531#2 -119683531#1 -119683531#0 -156645317#3 -156645317#2 -156645317#1 -156645317#0 -186071419 -13046212 -529019093 -44007518 -529019094#1 -529019094#0 -173535085 -136854335 42782997#0 42782997#1 42782997#2 45778763 177434565 44007519 237368562 177434567#0 177434567#1 177434567#2 529492482#0 529492482#1 44007520#0 44007520#1 44007520#2 44007520#3 44007520#4 37874644 37874646"/>
    </vehicle>
    <vehicle id="4" depart="4.00">
        <route edges="-19095143#3 -19095143#2 -19095143#1 -19095143#0 -69082734#1 -69082734#0 -261902455 -261902456 38764099#0 38764099#1 240238381 -222819512 -222819510#2 -222819510#1 -222819510#0 -74002567 -198255061#1 -198255061#0 -240059459 -13046214#1 -13046214#0 -165349774 22926020#0 22926020#1 240059475#0 23766810 23766807 414464417 46610857#0 46610857#1 46610857#2 -46610852#0"/>
    </vehicle>
    <vehicle id="5" depart="5.00">
        <route edges="222819510#0 -222819510#0 -74002567 -198255061#1 -198255061#0 -240059459 -13046214#1 -13046214#0 -165349774 -240059464 -46887128 -53329931 -222819518 -529019095 -119683531#3 -119683531#2 -119683531#1 -119683531#0 -156645317#3 -156645317#2 -156645317#1 -156645317#0 -186071419 -13046212 -529019093 -44007518 -529019094#1 -529019094#0 -323137727#1 -323137727#0 -222819515 -13046209#4 -13046209#3 -22926197#4 -22926197#3 22926197#3"/>
    </vehicle>
    <vehicle id="6" depart="6.00">
        <route edges="-529019094#0 -173535085 -136854335 42782997#0 42782997#1 42782997#2 45778763 177434565 44007519 237368562 177434567#0 177434567#1 177434567#2 529492482#0 529492482#1 -44007521#3 -44007521#2 -44007521#1 -44007521#0 -24524937#1"/>
    </vehicle>
    <vehicle id="7" depart="7.00">
        <route edges="-42424920#1 -42424920#0 20789454#6 20789454#7 20789455#0 20789455#1 20789455#2 174683820 174683818 44007521#0 44007521#1 44007521#2 44007521#3 44007520#0 44007520#1 44007520#2 44007520#3 -44128925#2 -47296578#1 75539644#0"/>
    </vehicle>
    <vehicle id="8" depart="8.00">
        <route edges="56065081#0 -56065081#0 -48977322#2 -48977322#1 -48977322#0 -176076397#0 -13041241#4 -13041241#3 -13041241#2 -13041241#1 -13041241#0 529019091 13046209#0 13046209#1 13046209#2 13046209#3 13046209#4 222819515 323137727#0 323137727#1 529019094#0 529019094#1 44007518 529019093 13046212 186071419 156645317#0 156645317#1 156645317#2 156645317#3 119683531#0 119683531#1 119683531#2 119683531#3 529019095 222819518 53329931 46887128 240059464 165349774 13046214#0 13046214#1 240059459 198255061#0 198255061#1 24813960#0 24813960#1 24813960#2 24813960#3 24813960#4 24813960#5 24813960#6 24813960#7 24813960#8 240238370 -13050858 13050863#0 13050863#1 436054108 73546243 22926019 194017203 194017205 13050866#0 13050866#1 46887200#0 46887200#1 46887200#2 46887200#3 194017201 346370359#0 346370359#1 346768263 226565063 346370362 -37446822#6 -37446822#5 -37446822#4 -37446822#3 -37446822#2 -37446822#1 -37446822#0 75539101 188051011 46738873#2 46738873#3 24863499#0 24863467 24754043#1"/>
    </vehicle>
    <vehicle id="9" depart="9.00">
        <route edges="110523447 110523417 24523985 24523988#0 -24523988#0 -24523985 43541806 13050871 110523457 346370362 346370361 346768266 18956312#0 18956312#1 18956312#2 18956312#3 240238369 240238368 -194017205 -194017203 -22926019 -73546243 -436054108 -13050863#1 -13050863#0 13050858 74002566#0 74002566#1 56130617 175874588 261299885 -186050144 -222819511 -295697503 -222819512 -222819510#2 -222819510#1 -222819510#0 -74002567 -198255061#1 -198255061#0 -240059459 -13046214#1 -13046214#0 -165349774 -240059464 -46887128 20789447#0 20789447#1 106644890 74332259#0 74332259#1 119683535#0 119683535#1 20789448 529450291 -22724796#10 -22724796#9 -22724796#8 -22724796#7 37628462#2 37628462#3"/>
    </vehicle>
    <vehicle id="10" depart="10.00">
        <route edges="23766765#0 -23766765#0 23766773#2 -23766762 177434560#0 177434560#1 24524363 156645317#2 156645317#3 119683531#0 119683531#1 119683531#2 119683531#3 529019095 222819518 53329931 46887128 240059464 165349774 13046214#0 13046214#1 240059459 198255061#0 198255061#1 24813960#0 24813960#1 24813960#2 24813960#3 24813960#4 24813960#5 24813960#6 24813960#7 24813960#8 240238370 -13050858 13050863#0 13050863#1 436054108 73546243 22926019 194017203 194017205 13050866#0 13050866#1 46887200#0 46887200#1 46887200#2 46887200#3 194017201 346370359#0 346370359#1 346768263 226565063 346370362 -37446822#6 -37446822#5 -37446822#4 -37446822#3 -37446822#2 -37446822#1 -37446822#0 75539101 188051011 46738873#2 46738873#3 46738873#4 -46738873#4"/>
    </vehicle>
    <vehicle id="11" depart="11.00">
        <route edges="46610852#2 215383685#2 215383685#3 -23766804 -414464417 -23766807 -23766810 -240059475#0 -22926020#1 -22926020#0 -240059464 -46887128 -46887127#2 -46887127#1 -46887127#0 -186631468 23766794 23766797#0 23766797#1"/>
    </vehicle>
    <vehicle id="12" depart="12.00">
        <route edges="39093355 240238388#0 240238388#1 -56130617 -74002566#1 74002566#1 56130617 175874588 261299885 -186050144 -222819511 -295697503 -222819512 -222819510#2 -222819510#1 -222819510#0 -74002567 -198255061#1 -198255061#0 -240059459 -13046214#1 -13046214#0 -165349774 -240059464 -46887128 -53329931 -222819518 -529019095 -119683531#3 -119683531#2 -119683531#1 -119683531#0 -156645317#3 -156645317#2 -156645317#1 -156645317#0 -186071419 -13046212 -529019093 -44007518 -529019094#1 -529019094#0 -323137727#1 -323137727#0 -222819515 -13046209#4 -13046209#3 -13046209#2 -13046209#1 -13046209#0"/>
    </vehicle>
    <vehicle id="13" depart="13.00">
        <route edges="-215383685#0 215383685#0 -46610857#1 -46610857#0 -414464417 -23766807 -23766810 -240059475#0 -22926020#1 -22926020#0 -240059464 -46887128 46887128 240059464 165349774 13046214#0 13046214#1 240059459 198255061#0 198255061#1 74002567 222819510#0 222819510#1 222819510#2 222819512 295697503 222819511 186050144 19069887#0 19069887#1 261902456 261902455 69082734#0 69082734#1 19095143#0 19095143#1 19095143#2 19095143#3"/>
    </vehicle>
    <vehicle id="14" depart="14.00">
        <route edges="-13046209#4 13046209#4 222819515 323137727#0 323137727#1 13046216#0 13046216#1 13046216#2 -177434560#3 -177434560#2 177434560#2"/>
    </vehicle>
    <vehicle id="15" depart="15.00">
        <route edges="37601380#1 -37601380#1 -37601380#0 240238367#5 240238367#6 24738127#0 24738127#1 24738127#2 24738127#3 24738127#4 24738127#5 24738127#6 75539101 188051011 -46738873#1 -46738873#0 24754139#0 24754139#1 240238377 13050858 74002566#0 74002566#1 56130617 175874588 261299885 -186050144 -222819511 -295697503 -222819512 -222819510#2 -222819510#1 -222819510#0 -74002567 -198255061#1 -198255061#0 -240059459 -13046214#1 -13046214#0 -165349774 -240059464 -46887128 -53329931 -222819518 -529019095 -119683531#3 -119683531#2 -119683531#1 -119683531#0 -156645317#3 -156645317#2 -156645317#1 -156645317#0 24524192#0 24524192#1 24524192#2 24524192#3 -177434560#3 -177434560#2 -177434560#1"/>
    </vehicle>
    <vehicle id="16" depart="16.00">
        <route edges="24024863#0 -24024863#0 23766766#0 23766766#1 -23766762 177434560#0 177434560#1 24524363 156645317#2 156645317#3 119683531#0 119683531#1 119683531#2 119683531#3 529019095 222819518 53329931 46887128 240059464 22926020#0 22926020#1 240059475#0"/>
    </vehicle>
    <vehicle id="17" depart="17.00">
        <route edges="270405940#0 -270405940#0 24738127#6 75539101 188051011 -46738873#1 -46738873#0 24754139#0 24754139#1 240238377 13050858 74002566#0 74002566#1 56130617 175874588 261299885 -186050144 -222819511 -295697503 -222819512 -222819510#2 -222819510#1 -222819510#0 -74002567 -198255061#1 -198255061#0 46738478#0 46738478#1 24644506#1"/>
    </vehicle>
    <vehicle id="18" depart="18.00">
        <route edges="-75539644#0 47296578#1 44128925#2 -44007520#3 -44007520#2 -44007520#1 -44007520#0 -529492482#1 -529492482#0 -177434567#2 -177434567#1 -177434567#0 -237368562 -44007519 -177434565 -45778763 -42782997#2 -42782997#1 -42782997#0 136854335 173535085 529019094#0 529019094#1 44007518 529019093 13046212 186071419 156645317#0 156645317#1 156645317#2 156645317#3 119683531#0 119683531#1 119683531#2 119683531#3 529019095 222819518 53329931 46887128 240059464 165349774 13046214#0 13046214#1 240059459 198255061#0 198255061#1 74002567 222819510#0 222819510#1 222819510#2 222819512 295697503 222819511 186050144 19069887#0 19069887#1 261902456 261902455 27517938 198255068#0 198255068#1 198255068#2 198255068#3 198255068#4 198255068#5 27519196#0 -27519196#0"/>
    </vehicle>
    <vehicle id="19" depart="19.00">
        <route edges="-24921741#1 -24921741#0 -24921748#1 -24921748#0 148208159 148208164 -148208165 43541819#0 43541819#1 24354330#0 24354330#1 24354330#2 24354330#3 339937172 257706830 240820818 -24354295 24354332#0 24354332#1 -111347827#3 33902463#0 33902463#1 33902463#2 33902463#3 33902463#4 44007512#2 44007512#3 46887224 156988807#0 156988807#1 156988807#2 46887228 346370367#0 346370367#1 669896841 669896843 669896842 669896844 -43541814 -110523415 -24523988#1 -24523988#0 -24523985 43541806 13050871 110523457 346370362 -37446822#6 -37446822#5 -37446822#4 -37446822#3 -37446822#2 -37446822#1 -37446822#0 75539101 188051011 46738873#2 46738873#3 24863499#0 24863467 24754043#1"/>
    </vehicle>
    <vehicle id="20" depart="20.00">
        <route edges="-24863312 -23766797#1 -23766797#0 -23766794 186631468 46887127#0 46887127#1 46887127#2 20789447#0 20789447#1 106644890 74332259#0 74332259#1 119683535#0 119683535#1 20789448 529450291 -22724796#10 -22724796#9 25282185#0"/>
    </vehicle>
    <vehicle id="22" depart="22.00">
        <route edges="-22325271#0 -529492481#2 -529492481#1 -529492481#0 -44007520#8 -44007520#7 -44007520#6 -44007520#5 -44007520#4 -44007520#3 -44007520#2 -44007520#1 -44007520#0 -529492482#1 -529492482#0 -177434567#2 -177434567#1 -177434567#0 -237368562 -44007519 -177434565 -45778763 -42782997#2 37628463#0 37628463#1 37628463#2 37628463#3 -37628463#3"/>
    </vehicle>
    <vehicle id="23" depart="23.00">
        <route edges="74332259#0 74332259#1 119683535#0 119683535#1 -529450292 -20789450 -177434570 -74332262#2 -74332262#1 -74332262#0 -53532780 -186071418#1 23766809#0 23766809#1 23766804 -215383685#3 -215383685#2 -46610852#2 46610853#2"/>
    </vehicle>
    <vehicle id="24" depart="24.00">
        <route edges="-24524925#4 24524925#4 25282222#4 25282222#5 25282222#6 37874634#0 37874634#1 37874634#2 37874634#3 37628465#0 37628465#1 22724796#0 -156978106#1 -156978106#0"/>
    </vehicle>
    <vehicle id="25" depart="25.00">
        <route edges="44007520#5 -44007520#5 -44007520#4 -44007520#3 -44007520#2 -44007520#1 -44007520#0 -529492482#1 -529492482#0 -177434567#2 -177434567#1 -177434567#0 -237368562 -44007519 -177434565 -45778763 -42782997#2 -42782997#1 -42782997#0 136854335 173535085 -323137727#1 -323137727#0 -222819515 -13046209#4 -13046209#3 -13046209#2 -13046209#1 27365976#0 27365976#1 27365976#2 -27230410#2 -27230410#1 257616135"/>
    </vehicle>
    <vehicle id="26" depart="26.00">
        <route edges="22325274 -37628465#1 -37628465#0 -37874634#3 -37874634#2 -37874634#1 -37874634#0 -25282222#6 -25282222#5 -25282222#4 -24524925#4 37874650 -37874650"/>
    </vehicle>
    <vehicle id="27" depart="27.00">
        <route edges="113684274#5 -113684274#5 -113684274#4 -113684274#3 44128925#0 44128925#1 44128925#2 -44007520#3"/>
    </vehicle>
    <vehicle id="28" depart="28.00">
        <route edges="22926197#1 -22926197#1 -22926197#0 -74002568#0 20789455#0 20789455#1 20789455#2 174683820 174683818 -24524937#1 -262459412 -37874648 37874648"/>
    </vehicle>
    <vehicle id="29" depart="29.00">
        <route edges="24524511 -24524479#1 24524479#1 -24524511 177434560#3 -13046216#2 -13046216#1 -13046216#0 -173535085 -136854335 42782997#0 42782997#1 42782997#2 45778763 177434565 44007519 237368562 177434567#0 177434567#1 177434567#2 529492482#0 529492482#1 44007520#0 44007520#1 44007520#2 44007520#3 44007520#4 37874644 37874646"/>
    </vehicle>
    <vehicle id="30" depart="30.00">
        <route edges="-59359871#2 -59359871#1 -59359871#0 -59359867#0 -410361982#1 -410361982#0 -46610856#5 -46610856#4 -46610856#3 -46610856#2 -46610856#1 -46610856#0 -46610857#3 -46610857#2 -215383685#0 215383685#0"/>
    </vehicle>
    <vehicle id="31" depart="31.00">
        <route edges="-46610857#0 -23766809#1 -23766809#0 186071418#1 53532780 74332262#0 74332262#1 74332262#2 177434570 20789450 529450292 20789448 529450291 -22724796#10 -22724796#9 -22724796#8 -37628463#6 -37628463#5 -37628463#4 -37628463#3 -37628463#2 -37628463#1 -37628463#0 42782997#2 45778763 177434565 44007519 237368562 177434567#0 177434567#1 177434567#2 529492482#0 529492482#1 44007520#0 44007520#1 44007520#2 44007520#3 -44007520#3"/>
    </vehicle>
    <vehicle id="33" depart="33.00">
        <route edges="-237368576#0 237368576#0 237368576#1 323137727#0 323137727#1 529019094#0 529019094#1 44007518 529019093 13046212 186071419 156645317#0 156645317#1 156645317#2 156645317#3 119683531#0 119683531#1 119683531#2 119683531#3 529019095 222819518 53329931 46887128 240059464 165349774 13046214#0 13046214#1 240059459 198255061#0 198255061#1 74002567 222819510#0 222819510#1 222819510#2 222819512 295697503 222819511 186050144 19069887#0 19069887#1 261902456 261902455 27517938 198255068#0 198255068#1 198255068#2 -198255068#2"/>
    </vehicle>
    <vehicle id="34" depart="34.00">
        <route edges="-13041241#2 -13041241#1 -13041241#0 529019091 13046209#0 13046209#1 -24879162#1 -24879162#0 -25018307#1"/>
    </vehicle>
    <vehicle id="35" depart="35.00">
        <route edges="-24524479#0 -23766765#0 23766773#2 -23766762 13046217#0 13046217#1 13046217#2 13046217#3 13046217#4 240371173 240371176#0 240371176#1 13046230#4 13046230#5 23766794 23766797#0 23766797#1 24863312 50005510 -24644544#1 -24891195"/>
    </vehicle>
    <vehicle id="36" depart="36.00">
        <route edges="25282222#1 -25282222#1 -25282222#0 13041237#1 13041237#2 13041237#3 74002568#0 74002568#1 74002568#2 74002568#3 74002568#4 237368576#0 237368576#1 323137727#0 323137727#1 529019094#0 529019094#1 44007518 529019093 13046212 186071419 156645317#0 156645317#1 156645317#2 156645317#3 119683531#0 119683531#1 119683531#2 119683531#3 529019095 222819518 53329931 46887128 240059464 165349774 13046214#0 13046214#1 240059459 198255061#0 198255061#1 24813960#0 24813960#1 24813960#2 24813960#3 24813960#4 24813960#5 24813960#6 24813960#7 24813960#8 240238370 -13050858 13050863#0 13050863#1 436054108 73546243 22926019 194017203 194017205 13050866#0 13050866#1 46887200#0 46887200#1 46887200#2 46887200#3 194017201 346370359#0 346370359#1 346768263 226565063 346370362 -37446822#6 -37446822#5 -37446822#4 -37446822#3 -37446822#2 -37446822#1 -37446822#0 -24738127#6 -24738127#5 -24738127#4 -24738127#3 -24738127#2 -24738127#1 -24738127#0 -240238367#6 -240238367#5 -240238367#4 -240238367#3 -240238367#2 240238367#2"/>
    </vehicle>
    <vehicle id="37" depart="37.00">
        <route edges="38451337#0 215383685#3 -23766804 -23766809#1 -23766809#0 186071418#1 53532780 74332262#0 74332262#1 74332262#2 177434570 20789450 529450292 20789448 529450291 22724799#0 22724799#1 22724799#2 22724799#3 22724799#4 22724799#5 529019092 186071417#0 186071417#1 -529019093 -44007518 -529019094#1 -529019094#0 -323137727#1 -323137727#0 -237368576#1 -237368576#0 -74002568#4 -74002568#3 -74002568#2 -74002568#1 22926197#0 22926197#1 22926198#0 22926198#1 22926199#0 22926199#1"/>
    </vehicle>
    <vehicle id="38" depart="38.00">
        <route edges="-13046230#3 13046230#3 13046230#4 13046230#5 186631468 46887127#0 46887127#1 46887127#2 46887128 240059464 22926020#0 22926020#1 240059475#0 23766810 23766807 414464417 46610857#0 46610857#1 46610857#2 46610857#3 329025195#0 46610853#0 59359486 77148100#0 77148100#1"/>
    </vehicle>
    <vehicle id="39" depart="39.00">
        <route edges="-22325274 22325274 22724796#0 22724796#1 22724796#2 22724796#3 22724796#4 22724796#5 22724796#6 22724796#7 22724796#8 22724796#9 22724796#10 -529450291 -20789448 -529450292 -20789450 -177434570 -74332262#2 -74332262#1 -25192381#1 -25192381#0 24354289#2 262076476 25192331"/>
    </vehicle>
    <vehicle id="40" depart="40.00">
        <route edges="119683530#2 47045363#0 47045363#1 -22724796#4 -22724796#3 -22724796#2 -22724796#1 -22724796#0 -37628465#1 -37628465#0 -37874634#3 -37874634#2 -37874634#1 -37874634#0 -44007520#5"/>
    </vehicle>
    <vehicle id="42" depart="42.00">
        <route edges="25282222#2 -25282222#2 -25282222#1 -25282222#0 13041237#1 13041237#2 13041237#3 74002568#0 74002568#1 74002568#2 74002568#3 74002568#4 237368576#0 237368576#1 323137727#0 323137727#1 529019094#0 529019094#1 44007518 529019093 -186071417#1 -186071417#0 -529019092 -22724799#5 -22724799#4 -22724799#3 -22724799#2 -22724799#1 -22724799#0 -529450291 -20789448 -119683535#1 -119683535#0 -74332259#1 -74332259#0"/>
    </vehicle>
    <vehicle id="44" depart="44.00">
        <route edges="-43541805#0 43541805#0 43541805#1 110523403 43541813 669896842 669896844 -43541814 -110523415 -24523988#1 -24523988#0 -24523985 43541806 13050871 110523457 346370362 346370361 346768266 18956312#0 18956312#1 18956312#2 18956312#3 240238369 240238368 -194017205 -194017203 -22926019 -73546243 -436054108 -13050863#1 -13050863#0 13050858 74002566#0 74002566#1 56130617 175874588 261299885 -186050144 -222819511 -295697503 -222819512 -222819510#2 -222819510#1 -222819510#0 -74002567 -198255061#1 -198255061#0 -240059459 -13046214#1 -13046214#0 -165349774 22926020#0 22926020#1 240059475#0 23766810 23766807 414464417 23766804 -215383685#3 -38451337#0"/>
    </vehicle>
    <vehicle id="45" depart="45.00">
        <route edges="186071418#0 186071418#1 53532780 74332262#0 74332262#1 74332262#2 177434570 20789450 529450292 20789448 529450291 -22724796#10 -22724796#9 -22724796#8 -37628463#6 -37628463#5 -37628463#4 -37628463#3 -37628463#2 -37628463#1 -37628463#0 42782997#2 45778763 177434565 44007519 237368562 177434567#0 177434567#1 177434567#2 529492482#0 529492482#1 -44007521#3 -44007521#2 -44007521#1 -44007521#0 -24524937#1 -24524937#0 176942255#1 24524925#3 37874650"/>
    </vehicle>
    <vehicle id="46" depart="46.00">
        <route edges="-119683530#0 22325273 22724796#0 22724796#1 22724796#2 22724796#3 22724796#4 22724796#5 22724796#6 22724796#7 22724796#8 22724796#9 22724796#10 -529450291 -20789448 -119683535#1 -119683535#0 -74332259#1 46788037 22325279#1"/>
    </vehicle>
    <vehicle id="47" depart="47.00">
        <route edges="240371176#1 13046230#4 13046230#5 186631468 46887127#0 46887127#1 46887127#2 20789447#0 20789447#1 106644890 74332259#0 74332259#1 119683535#0 119683535#1 -119683530#5 -119683530#4 -119683530#3 -119683530#2 -119683530#1 47365527#0 47365527#1"/>
    </vehicle>
    <vehicle id="48" depart="48.00">
        <route edges="529019092 186071417#0 186071417#1 13046212 186071419 156645317#0 156645317#1 156645317#2 156645317#3 119683531#0 119683531#1 119683531#2 119683531#3 529019095 222819518 53329931 46887128 240059464 165349774 13046214#0 13046214#1 240059459 198255061#0 198255061#1 74002567 222819510#0 222819510#1 222819510#2 222819512 295697503 222819511 186050144 19069887#0 19069887#1 261902456 261902455 69082734#0"/>
    </vehicle>
    <vehicle id="49" depart="49.00">
        <route edges="-270405940#3 -270405940#2 -270405940#1 -270405940#0 24738127#6 75539101 188051011 -46738873#1 -46738873#0 24754139#0 24754139#1 240238377 13050858 74002566#0 74002566#1 56130617 175874588 261299885 -186050144 -222819511 -295697503 -222819512 -222819510#2 -222819510#1 -222819510#0 -74002567 -198255061#1 -198255061#0 -240059459 -13046214#1 -13046214#0 -165349774 -240059464 -46887128 -53329931 -222819518 -529019095 -119683531#3 -119683531#2 -119683531#1 -119683531#0 -156645317#3 -156645317#2 -156645317#1 -156645317#0 -186071419 -13046212 -529019093 -44007518 -529019094#1 -529019094#0 -323137727#1 -323137727#0 -237368576#1 -237368576#0 -74002568#4 -74002568#3 -74002568#2 -74002568#1 -74002568#0 -13041237#3 -37874657#4 -37874657#3 -37874657#2 -37874657#1 37874658#0"/>
    </vehicle>
    <vehicle id="50" depart="50.00">
        <route edges="-37874651#4 -37874651#3 -37874651#2 -37874651#1 -37874651#0 -24524925#1 -20789455#1 -20789455#0 -20789454#7 -20789454#6 -20789454#5 -20789454#4 -20789454#3 -20789454#2 -20789454#1 -20789454#0 13041241#2 13041241#3 13041241#4 176076397#0 48977322#0 48977322#1 48977322#2"/>
    </vehicle>
    <vehicle id="51" depart="51.00">
        <route edges="-47045363#0 119683530#3 -119683530#3"/>
    </vehicle>
    <vehicle id="52" depart="52.00">
        <route edges="-47045363#0 119683530#3 119683530#4 119683530#5 -529450292 -20789450 -177434570 -74332262#2 -74332262#1 -74332262#0 -53532780 -240059475#5 -240059475#4 -240059475#3 -240059475#2 -240059475#1 -240059475#0"/>
    </vehicle>
    <vehicle id="53" depart="53.00">
        <route edges="-19069890#1 -19069890#0 -240352753#7 -240352753#6 -240352753#5 -240352753#4 -240352753#3 -240352753#2 -240352753#1 -240352753#0 -240352754 -40128181 -69082734#1 -69082734#0 -261902455 -261902456 38764099#0 38764099#1 240238381 -222819512 -222819510#2 -222819510#1 -222819510#0 -74002567 -198255061#1 -198255061#0 -240059459 -13046214#1 -13046214#0 -165349774 -240059464 -46887128 -46887127#2 -46887127#1 -46887127#0 -186631468 -13046230#5 -13046230#4 -240371176#1 240371176#1"/>
    </vehicle>
    <vehicle id="54" depart="54.00">
        <route edges="-19069890#1 -19069890#0 -240352753#7 -240352753#6 -240352753#5 -240352753#4 -240352753#3 -240352753#2 -240352753#1 -240352753#0 -240352754 -40128181 -69082734#1 -69082734#0 -261902455 -261902456 38764099#0 38764099#1 240238381 -222819512 -222819510#2 -222819510#1 -222819510#0 -74002567 -198255061#1 -198255061#0 -240059459 -13046214#1 -13046214#0 -165349774 22926020#0 22926020#1 240059475#0 23766810 23766807 414464417 23766804 -215383685#3"/>
    </vehicle>
    <vehicle id="55" depart="55.00">
        <route edges="-37874651#4 -37874651#3 -37874651#2 -37874651#1 -37874651#0 -24524925#1 20789455#2 174683820 174683818 44007521#0 44007521#1 44007521#2 44007521#3 -529492482#1 -529492482#0 -177434567#2 -177434567#1 -177434567#0 -237368562 -44007519 -177434565 -45778763 -42782997#2 -42782997#1 -42782997#0 136854335 173535085 529019094#0 529019094#1 44007518 529019093 13046212 186071419 156645317#0 156645317#1 156645317#2 156645317#3 119683531#0 119683531#1 119683531#2 119683531#3 529019095 222819518 53329931 46887128 240059464 165349774 13046214#0 13046214#1 240059459 198255061#0 198255061#1 24813960#0 24813960#1 24813960#2 24813960#3 24813960#4 24813960#5 24813960#6 24813960#7 24813960#8 240238370 -13050858 13050863#0 13050863#1 436054108 73546243 22926019 194017203 194017205 13050866#0 13050866#1 46887200#0 46887200#1 46887200#2 46887200#3 194017201 346370359#0 346370359#1 346768263 226565063 346370362 -37446822#6 -37446822#5 -37446822#4 -37446822#3 -37446822#2 -37446822#1 -37446822#0 -24738127#6 -24738127#5 -24738127#4 -24738127#3 -24738127#2 -24738127#1 -24738127#0 -240238367#6 -240238367#5 -240238367#4"/>
    </vehicle>
    <vehicle id="56" depart="56.00">
        <route edges="-22325279#3 -22325279#2 -22325279#1 -22325279#0 -106644890 -20789447#1 -20789447#0 46887128 240059464 165349774 13046214#0 13046214#1 240059459 198255061#0 198255061#1 74002567 222819510#0 222819510#1 222819510#2 222819512 295697503 222819511 186050144 19069887#0 19069887#1 261902456 261902455 69082734#0 69082734#1 40128181 240352754 240352753#0 240352753#1 240352753#2 240352753#3 240352753#4 240352753#5 240352753#6 240352753#7 19069890#0 -54739289#2 -54739289#1 -54739289#0"/>
    </vehicle>
    <vehicle id="58" depart="58.00">
        <route edges="37874658#1 37874657#3 37874657#4 13041237#3 74002568#0 74002568#1 74002568#2 74002568#3 74002568#4 237368576#0 237368576#1 323137727#0 323137727#1 529019094#0 529019094#1 44007518 529019093 13046212 186071419 156645317#0 156645317#1 156645317#2 156645317#3 119683531#0 119683531#1 119683531#2 119683531#3 529019095 222819518 53329931 46887128 240059464 165349774 13046214#0 13046214#1 240059459 198255061#0 198255061#1 74002567 222819510#0 222819510#1 222819510#2 222819512 295697503 222819511 186050144 19069887#0 19069887#1 261902456 261902455 69082734#0 69082734#1 40128181 240352754 240352753#0 240352753#1 240352753#2 240352753#3 240352753#4 240352753#5 240352753#6 240352753#7 19069890#0 19069890#1"/>
    </vehicle>
    <vehicle id="59" depart="59.00">
        <route edges="44006638#2 -22325271#0 -529492481#2 -529492481#1 -529492481#0 -44007520#8 -44007520#7 -44007520#6 -44007520#5 -44007520#4 -44007520#3 -44007520#2 -44007520#1 -44007520#0 -529492482#1 -529492482#0 -177434567#2 -177434567#1 -177434567#0 -237368562 -44007519 -177434565 -45778763 -42782997#2 -42782997#1 -42782997#0 136854335 173535085 529019094#0 529019094#1 44007518 529019093 13046212 186071419 156645317#0 156645317#1 156645317#2 156645317#3 119683531#0 119683531#1 119683531#2 119683531#3 529019095 222819518 53329931 46887128 240059464 165349774 13046214#0 13046214#1 240059459 198255061#0 198255061#1 74002567 222819510#0 222819510#1 222819510#2 222819512 295697503 222819511 186050144 19069887#0 19069887#1 261902456 261902455 69082734#0 69082734#1 19095143#0 19095143#1 19095143#2 -47377150#2 -47377150#1 -47377150#0"/>
    </vehicle>
    <vehicle id="60" depart="60.00">
        <route edges="-23766821#1 -23766821#0 -23766810 -240059475#0 -22926020#1 -22926020#0 -240059464 -46887128 -53329931 -222819518 -529019095 -119683531#3 -119683531#2 -119683531#1 -119683531#0 -156645317#3 -156645317#2 -156645317#1 -156645317#0 -186071419 -13046212 -529019093 -44007518 -529019094#1 -529019094#0 -323137727#1 -323137727#0 -222819515 -13046209#4 -13046209#3 -13046209#2 -13046209#1 -13046209#0 -529019091 529019090#0 529019090#1 23766763#0"/>
    </vehicle>
    <vehicle id="61" depart="61.00">
        <route edges="56060895 -24024863#1 -24024863#0 23766766#0 23766766#1 -23766762 13046217#0 13046217#1 13046217#2 13046217#3 13046217#4 240371173 240371176#0 240371176#1 13046230#4 13046230#5 23766794 23766797#0 23766797#1 24863312 50005510 -24644544#1 -24891195"/>
    </vehicle>
    <vehicle id="63" depart="63.00">
        <route edges="-111444387#0 111444387#0 24921747#0 -24921747#0"/>
    </vehicle>
    <vehicle id="64" depart="64.00">
        <route edges="-22724796#4 22724796#4 22724796#5 22724796#6 22724796#7 22724796#8 22724796#9 22724796#10 -529450291 -20789448 -529450292 -20789450 -177434570 -74332262#2 -74332262#1 -74332262#0 -53532780 -186071418#1 23766809#0 23766809#1 23766804"/>
    </vehicle>
    <vehicle id="65" depart="65.00">
        <route edges="-19095143#3 -19095143#2 -19095143#1 -19095143#0 -69082734#1 -69082734#0 -261902455 -261902456 38764099#0 38764099#1 240238381 -222819512 -222819510#2 -222819510#1 -222819510#0 -74002567 24813960#0 24813960#1"/>
    </vehicle>
    <vehicle id="66" depart="66.00">
        <route edges="13041241#3 -13041241#3 -13041241#2 -13041241#1 -13041241#0 529019091 13046209#0 13046209#1 13046209#2 13046209#3 13046209#4 222819515 323137727#0 323137727#1 -173535085 -136854335 42782997#0 42782997#1 37628463#0 37628463#1 37628463#2 37628463#3 37628463#4 37628463#5 37628463#6 -22724796#7 -37628462#1 -46601870#3"/>
    </vehicle>
    <vehicle id="67" depart="67.00">
        <route edges="240382968 -77148100#0 -59359486 -46610853#0 -329025195#0 -46610857#3 -46610857#2 -46610857#1 -46610857#0 -23766809#1 -23766809#0 186071418#1 53532780 74332262#0 74332262#1 74332262#2 177434570 20789450 529450292 20789448 529450291 -22724796#10 -22724796#9 -22724796#8 -22724796#7 22724796#7"/>
    </vehicle>
    <vehicle id="68" depart="68.00">