<configuration>

<input>
<net-file value="Kleve_map2.net.xml"/>
<route-files value="Kleve.rou.xml"/>
</input>
<time>
<begin value="0"/>
<end value="10000"/>
</time>

</configuration>